Version 4
SHEET 1 880 680
WIRE -304 -16 -352 -16
WIRE -80 -16 -224 -16
WIRE 48 -16 -80 -16
WIRE 176 -16 48 -16
WIRE 48 16 48 -16
WIRE -352 112 -352 -16
WIRE -80 128 -80 -16
WIRE 176 128 176 -16
WIRE 48 192 48 80
WIRE 128 192 48 192
WIRE 48 224 48 192
WIRE -80 240 -80 192
WIRE -352 256 -352 192
WIRE 176 320 176 192
WIRE 48 336 48 304
FLAG -352 256 0
FLAG 176 320 0
FLAG 176 -16 out
FLAG -80 240 0
FLAG 48 336 0
SYMBOL voltage -352 96 R0
WINDOW 3 24 152 Left 2
WINDOW 123 0 0 Left 0
WINDOW 39 24 124 Left 2
SYMATTR InstName V1
SYMATTR Value SINE(0 20 0.1)
SYMATTR SpiceLine Rser=1
SYMBOL zener 64 80 R180
WINDOW 0 24 64 Left 2
WINDOW 3 24 0 Left 2
SYMATTR InstName D1
SYMATTR Value UFZV15B
SYMBOL diode -64 192 R180
WINDOW 0 24 64 Left 2
WINDOW 3 24 0 Left 2
SYMATTR InstName D2
SYMATTR Value 1N4004
SYMBOL ZZZ\\Triac\\BT_TRIAC 144 128 R0
SYMATTR InstName U1
SYMBOL ZZZ\\FUSE\\fuse2 -256 -16 R0
SYMATTR InstName U2
SYMATTR SpiceModel F3.15A
SYMBOL res 32 208 R0
SYMATTR InstName R1
SYMATTR Value 100k
TEXT -258 344 Left 2 !.tran 5
